DATABASE C:\Program Files\USGS\phreeqc-3.8.6-17100-x64\database\phreeqc.dat

EXCHANGE_SPECIES
    X- = X-
        log_k 0.0
    
    H+ + X- = HX
        log_k 0.0

SOLUTION 1
    temp      25
    pH        5.5
    Cl        0.01 charge
    water     1 kg

EXCHANGE 1
    -equilibrate with solution 1
    X         1.0

SELECTED_OUTPUT
    -molalities HX CaX2 MgX2 NaX

END