DATABASE C:\Program Files\USGS\phreeqc-3.8.6-17100-x64\database\phreeqc.dat

SOLUTION 1
    temp      25
    pH        7.0
    Na        100
    Cl        100 charge
    water     1 kg

EXCHANGE 1
    X         1.0
    -equilibrate with solution 1

SELECTED_OUTPUT
    -molalities NaX CaX2 MgX2

END