
DATABASE C:\Program Files\USGS\phreeqc-3.8.6-17100-x64\database\phreeqc.dat

# WAC H-form exchange reactions with H+ release
EXCHANGE_SPECIES
    # H+ is reference species for H-form resin
    H+ + X- = HX
        log_k 0.0
    
    # Ca exchange releases 2H+ (models alkalinity consumption)
    Ca+2 + 2HX = CaX2 + 2H+
        log_k 2.0  # ~2.0 for favorable exchange
        -gamma 5.0 0.165
    
    # Mg exchange releases 2H+
    Mg+2 + 2HX = MgX2 + 2H+
        log_k 1.8  # ~1.8
        -gamma 5.5 0.2
    
    # Na exchange releases H+ (less favorable)
    Na+ + HX = NaX + H+
        log_k 0.5  # ~0.5
        -gamma 4.0 0.075
    
    # K exchange releases H+
    K+ + HX = KX + H+
        log_k 0.7  # ~0.7
        -gamma 3.5 0.015

# Feed solution
SOLUTION 0 Feed water
    temp      25
    pH        7.2
    units     mg/L
    Ca        160
    Mg        24.3
    Na        100
    K         0
    Cl        350 charge
    Alkalinity 183 as HCO3
    S(6)      200 as SO4
    N(5)      0 as NO3
    water     1 kg

# Initial column solution (acidic to maintain H-form)
SOLUTION 1-10 Initial column water
    temp      25
    pH        3.5
    Cl        1 charge  # Sufficient Cl- to balance H+ at pH 3.5
    water     141.3716 kg

# WAC exchanger - start with X-, equilibrate with acidic solution to form HX
EXCHANGE 1-10
    X         11.750000000000002
    -equilibrate with solution 1-10

# Transport simulation
TRANSPORT
    -cells    10
    -shifts   15000
    -time_step 254.46887999999998  # seconds
    -flow_direction forward
    -boundary_conditions flux flux
    -lengths  10*0.353429  # m3
    -dispersivities 10*0.002  # m
    -porosities 10*0.4
    -punch_cells 10
    -punch_frequency 1

# Output for breakthrough curves
SELECTED_OUTPUT 1
    -file transport.sel
    -reset false
    -solution true
    -time true
    -step true
    -pH true
    -alkalinity true
    -totals Ca Mg Na K Cl C(4) S(6)
    -molalities H+ OH- CO2 HCO3- CO3-2 CaX2 MgX2 NaX KX HX
    -saturation_indices Calcite Aragonite Dolomite

USER_PUNCH 1
    -headings BV Cell Ca_mg/L Mg_mg/L Na_mg/L Hardness_mg/L pH Alk_mg/L CO2_mg/L Active_Sites_% Removal_%
    -start
    10 REM BV calculation: volume passed / total bed volume
    20 BV = STEP_NO * 141.3716 / 3534.29
    30 IF (STEP_NO <= 0) THEN GOTO 300
    40 PUNCH BV, CELL_NO
    50 ca_mg = TOT("Ca") * 40.078 * 1000
    60 mg_mg = TOT("Mg") * 24.305 * 1000
    70 na_mg = TOT("Na") * 22.990 * 1000
    80 PUNCH ca_mg
    90 PUNCH mg_mg
    100 PUNCH na_mg
    110 hardness_caco3 = ca_mg * 2.5 + mg_mg * 4.1
    120 PUNCH hardness_caco3
    130 PUNCH -LA("H+")
    140 alk_mg = ALK * 61000
    145 IF (alk_mg < 0) THEN alk_mg = 0
    150 PUNCH alk_mg
    160 co2_mg = MOL("CO2") * 44010 * 1000
    170 PUNCH co2_mg
    # Calculate active sites percentage based on HX fraction
    # HX mol/kg water, need to compare to total exchange per kg water
    180 hx_mol = MOL("HX")
    185 total_x = 11.750000000000002
    190 active_percent = (hx_mol / total_x) * 100
    195 IF (active_percent > 100) THEN active_percent = 100
    200 PUNCH active_percent
    # Calculate alkalinity removal
    220 feed_alk = 183
    230 IF (feed_alk > 0) THEN removal = (1 - alk_mg/feed_alk) * 100 ELSE removal = 0
    240 IF (removal < 0) THEN removal = 0
    250 PUNCH removal
    300 REM end
    -end

END
